s3fifo: /scratch/user/mckinsey/CSCE614-Project/src/cache.cc:93: bool CACHE::handle_fill(const CACHE::mshr_type&): Assertion `way <= set_end' failed.
WARNING: physical memory size is smaller than virtual memory size.

*** ChampSim Multicore Out-of-Order Simulator ***
Warmup Instructions: 100000000
Simulation Instructions: 100000000
Number of CPUs: 1
Page size: 4096

Off-chip DRAM Size: 4 GiB Channels: 1 Width: 64-bit Data Race: 3200 MT/s
/var/spool/slurmd/job10239268/slurm_script: line 19: 184984 Aborted                 (core dumped) $bin --warmup-instructions $warmup_instructions --simulation-instructions $simulation_instructions $trace

real	0m23.660s
user	0m23.087s
sys	0m0.249s
